resultados/CN15/CN15_EXP_CURRENTS.CSV
Element, I1_1, Ang1_1, I1_2, Ang1_2, I1_3, Ang1_3, I1_4, Ang1_4, Iresid1, AngResid1, I2_1, Ang2_1, I2_2, Ang2_2, I2_3, Ang2_3, I2_4, Ang2_4, Iresid2, AngResid2
Vsource.SOURCE,    314.583,   153.66,    314.586,    33.66,    314.586,   -86.34,          0,     0.00, 0.00471166,   -37.25,    314.583,   -26.34,    314.586,  -146.34,    314.586,    93.66,          0,     0.00, 0.00471166,   142.75
Line.L_CEI_MT_5070,   0.794512,   153.31,   0.794574,    33.31,   0.794533,   -86.69,          0,     0.00, 6.76638E-005,    74.31,   0.794512,   -26.69,   0.794574,  -146.69,   0.794533,    93.31,          0,     0.00, 6.76635E-005,  -105.69
Line.L_CEI_MT_15536,   0.228626,   153.53,   0.228626,    33.53,   0.228626,   -86.47,          0,     0.00, 5.32576E-007,  -174.58,   0.228626,   -26.47,   0.228626,  -146.47,   0.228626,    93.53,          0,     0.00, 5.32489E-007,     5.45
Line.L_CEI_MT_15882A,   0.230222,   -26.17,   0.230222,  -146.17,   0.230222,    93.83,          0,     0.00, 5.31018E-007,    -4.03,   0.230222,   153.83,   0.230222,    33.83,   0.230222,   -86.17,          0,     0.00, 5.3107E-007,   175.92
Line.L_CEI_MT_16214A,    13.5811,   153.24,    13.5811,    33.24,    13.5811,   -86.76,          0,     0.00, 1.56224E-005,   -11.14,    13.5811,   -26.76,    13.5811,  -146.76,    13.5811,    93.24,          0,     0.00, 1.56227E-005,   168.86
Line.L_CEI_MT_16214A99,    13.5811,   -26.76,    13.5811,  -146.76,    13.5811,    93.24,          0,     0.00, 2.93511E-005,  -173.14,    13.5811,   153.24,    13.5811,    33.24,    13.5811,   -86.76,          0,     0.00, 2.9351E-005,     6.86
Line.L_CEI_MT_16434A,    8.48736,   153.23,    8.48735,    33.23,    8.48736,   -86.77,          0,     0.00, 2.73855E-005,    -2.45,    8.48736,   -26.77,    8.48735,  -146.77,    8.48736,    93.23,          0,     0.00, 2.73857E-005,   177.54
Line.L_CEI_MT_171819,    62.3054,   -26.74,    62.3063,  -146.74,    62.3062,    93.26,          0,     0.00, 0.000785069,  -172.14,    62.3054,   153.26,    62.3063,    33.26,    62.3062,   -86.74,          0,     0.00, 0.000785069,     7.86
Line.L_CEI_MT_171820,    62.3054,   -26.74,    62.3063,  -146.74,    62.3062,    93.26,          0,     0.00, 0.000785069,  -172.14,    62.3054,   153.26,    62.3063,    33.26,    62.3062,   -86.74,          0,     0.00, 0.000785069,     7.86
Line.L_CEI_MT_171828,   0.339734,   153.25,   0.339733,    33.25,   0.339733,   -86.75,          0,     0.00, 8.12361E-007,  -171.20,   0.339734,   -26.75,   0.339733,  -146.75,   0.339733,    93.25,          0,     0.00, 8.12037E-007,     8.85
Line.L_CEI_MT_171838,     14.276,   153.84,    14.2761,    33.84,    14.2765,   -86.16,          0,     0.00, 0.000806304,  -118.10,     14.276,   -26.16,    14.2761,  -146.16,    14.2765,    93.84,          0,     0.00, 0.000806304,    61.90
Line.L_CEI_MT_171839,    14.9676,   153.84,    14.9677,    33.84,    14.9682,   -86.16,          0,     0.00, 0.000806997,  -118.20,    14.9676,   -26.16,    14.9677,  -146.16,    14.9682,    93.84,          0,     0.00, 0.000806998,    61.80
Line.L_CEI_MT_171841, 2.76416E-010,   109.21, 2.92852E-010,   116.57, 2.86639E-010,   113.96,          0,     0.00, 8.54709E-010,   113.32, 2.40113E-011,  -155.38, 4.24258E-011,    30.96, 2.62338E-011,    33.69,          0,     0.00, 4.49349E-011,    35.94
Line.L_CEI_MT_171843, 1.86355E-010,   -38.66, 9.79556E-011,  -121.33, 1.30156E-010,   116.57,          0,     0.00, 9.124E-011,   -66.50, 1.69859E-010,   133.26, 1.66236E-010,    23.20,          0,     0.00,          0,     0.00, 1.92641E-010,    79.11
Line.L_CEI_MT_171854, 5.82077E-011,   180.00, 5.10615E-011,  -175.91, 1.45519E-011,   180.00,          0,     0.00, 1.23745E-010,  -178.32, 1.50746E-010,   109.75, 1.61552E-010,   125.84, 2.02162E-010,   120.26,          0,     0.00, 5.11301E-010,   118.94
Line.L_CEI_MT_171863,    72.1283,   -26.71,    72.1291,  -146.71,    72.1288,    93.29,          0,     0.00, 0.000987786,  -163.72,    72.1283,   153.29,    72.1291,    33.29,    72.1288,   -86.71,          0,     0.00, 0.000987786,    16.28
Line.L_CEI_MT_171864,    72.1283,   153.29,    72.1291,    33.29,    72.1288,   -86.71,          0,     0.00, 0.000987786,    16.28,    72.1283,   -26.71,    72.1291,  -146.71,    72.1288,    93.29,          0,     0.00, 0.000987786,  -163.72
Line.L_CEI_MT_171865,    72.1283,   153.29,    72.1291,    33.29,    72.1288,   -86.71,          0,     0.00, 0.000987786,    16.28,    72.1283,   -26.71,    72.1291,  -146.71,    72.1288,    93.29,          0,     0.00, 0.000987786,  -163.72
Line.L_CEI_MT_171866,    72.1283,   -26.71,    72.1291,  -146.71,    72.1288,    93.29,          0,     0.00, 0.000987786,  -163.72,    72.1283,   153.29,    72.1291,    33.29,    72.1288,   -86.71,          0,     0.00, 0.000987786,    16.28
Line.L_CEI_MT_171867,    33.6028,   153.50,    33.6033,    33.50,    33.6032,   -86.50,          0,     0.00, 0.000743612,   -41.73,    33.6028,   -26.50,    33.6033,  -146.50,    33.6032,    93.50,          0,     0.00, 0.000743612,   138.27
Line.L_CEI_MT_171870,    105.731,   153.36,    105.732,    33.36,    105.732,   -86.64,          0,     0.00, 0.00151886,    -8.26,    105.731,   -26.64,    105.732,  -146.64,    105.732,    93.36,          0,     0.00, 0.00151886,   171.74
Line.L_CEI_MT_171871, 1.18983E-009,   119.29, 1.12682E-009,   120.46, 1.12305E-009,   121.22,          0,     0.00, 3.43937E-009,   120.30, 9.31131E-010,   -61.53, 8.3651E-010,   -58.83, 8.23695E-010,   -57.99,          0,     0.00, 2.59041E-009,   -59.54
Line.L_CEI_MT_171872, 9.22214E-010,   119.67, 8.22093E-010,   124.04, 8.55629E-010,   123.55,          0,     0.00, 2.59838E-009,   122.33, 6.0017E-010,   -60.79, 4.88835E-010,   -58.85, 5.65094E-010,   -55.49,          0,     0.00, 1.65283E-009,   -58.41
Line.L_CEI_MT_171881, 5.75942E-010,   116.65, 5.06359E-010,   118.77, 5.27294E-010,   117.98,          0,     0.00, 1.6094E-009,   117.75, 3.71916E-010,   -67.57, 3.18288E-010,   -61.31, 3.25391E-010,   -63.43,          0,     0.00, 1.01452E-009,   -64.28
Line.L_CEI_MT_171882, 3.62482E-010,   123.85, 3.28815E-010,   118.41, 3.67922E-010,   114.54,          0,     0.00, 1.05679E-009,   118.93, 2.62496E-011,   -14.04, 2.70412E-011,   160.35, 7.27596E-012,   180.00,          0,     0.00, 7.77073E-012,   159.44
Line.L_CEI_MT_171885,    105.731,   153.36,    105.732,    33.36,    105.732,   -86.64,          0,     0.00, 0.00151887,    -8.26,    105.731,   -26.64,    105.732,  -146.64,    105.732,    93.36,          0,     0.00, 0.00151887,   171.74
Line.L_CEI_MT_171886, 9.34899E-010,   123.01, 9.42077E-010,   120.01, 8.12337E-010,   120.70,          0,     0.00, 2.68861E-009,   121.26, 6.18523E-010,   -56.64, 6.32893E-010,   -63.73, 4.96687E-010,   -58.17,          0,     0.00, 1.74548E-009,   -59.64
Line.L_CEI_MT_171887, 6.45759E-010,   123.51, 6.47471E-010,   122.26, 5.66778E-010,   119.20,          0,     0.00, 1.85911E-009,   121.76, 2.99776E-010,   -53.51, 2.77503E-010,   -61.84, 1.89734E-010,   -57.53,          0,     0.00, 7.65492E-010,   -57.52
Line.L_CEI_MT_171888, 2.76343E-010,   110.82, 2.48344E-010,   121.83, 2.59089E-010,   128.16,          0,     0.00, 7.7749E-010,   120.04, 2.90612E-011,  -159.86, 9.09495E-012,   126.87, 4.1159E-011,   -45.00,          0,     0.00, 3.20395E-011,   -96.52
Line.L_CEI_MT_171889,    105.731,   153.36,    105.732,    33.36,    105.732,   -86.64,          0,     0.00, 0.00151887,    -8.26,    105.731,   -26.64,    105.732,  -146.64,    105.732,    93.36,          0,     0.00, 0.00151887,   171.74
Line.L_CEI_MT_171893,    105.731,   153.36,    105.732,    33.36,    105.732,   -86.64,          0,     0.00, 0.00151887,    -8.26,    105.731,   -26.64,    105.732,  -146.64,    105.732,    93.36,          0,     0.00, 0.00151887,   171.74
Line.L_CEI_MT_171895, 3.89281E-011,   127.41, 1.67703E-011,   -40.60, 7.27596E-012,     0.00,          0,     0.00, 2.03369E-011,   100.30, 3.40856E-010,   116.98, 3.75268E-010,   118.68, 4.00706E-010,   119.36,          0,     0.00, 1.11666E-009,   118.40
Line.L_CEI_MT_171897,    106.885,   -26.64,    106.886,  -146.64,    106.886,    93.36,          0,     0.00, 0.00158769,  -178.62,    106.885,   153.36,    106.886,    33.36,    106.886,   -86.64,          0,     0.00, 0.00158769,     1.38
Line.L_CEI_MT_171898, 8.62324E-010,   -62.89, 8.46055E-010,   -62.88, 8.14127E-010,   -61.14,          0,     0.00, 2.52225E-009,   -62.33, 1.35228E-009,   117.74, 1.34906E-009,   117.81, 1.30713E-009,   118.42,          0,     0.00, 4.00842E-009,   117.98
Line.L_CEI_MT_171900, 8.69233E-010,   114.74, 8.37494E-010,   119.68, 8.14127E-010,   118.86,          0,     0.00, 2.51903E-009,   117.71, 6.44405E-010,   -64.59, 6.15539E-010,   -61.01, 5.88993E-010,   -62.80,          0,     0.00, 1.84832E-009,   -62.83
Line.L_CEI_MT_171901, 6.34629E-010,   117.67, 5.97695E-010,   119.14, 5.72181E-010,   120.15,          0,     0.00, 1.80422E-009,   118.94, 1.98503E-010,   -62.73, 1.68146E-010,   -58.72, 1.49334E-010,   -55.92,          0,     0.00, 5.15362E-010,   -59.45
Line.L_CEI_MT_171903, 2.12129E-010,   120.96, 1.85929E-010,   120.58, 1.98595E-010,   118.44,          0,     0.00, 5.9654E-010,   120.00, 2.05795E-011,   -45.00, 2.91038E-011,     0.00, 7.27596E-012,   180.00,          0,     0.00, 3.91822E-011,   -21.80
Line.L_CEI_MT_171909,     28.373,   -33.12,    28.3734,  -153.12,    28.3731,    86.88,          0,     0.00, 0.000452114,  -166.24,     28.373,   146.88,    28.3734,    26.88,    28.3731,   -93.12,          0,     0.00, 0.000452114,    13.76
Line.L_CEI_MT_171910,     28.373,   146.88,    28.3734,    26.88,    28.3731,   -93.12,          0,     0.00, 0.000452114,    13.76,     28.373,   -33.12,    28.3734,  -153.12,    28.3731,    86.88,          0,     0.00, 0.000452114,  -166.24
Line.L_CEI_MT_171911, 9.92975E-011,   -28.44, 7.78561E-011,   -37.41, 1.51926E-010,   -73.30,          0,     0.00, 3.07942E-010,   -51.23, 2.351E-010,   146.68, 2.59319E-010,   124.14, 2.76103E-010,   108.43,          0,     0.00, 7.42417E-010,   125.33
Line.L_CEI_MT_171919, 6.53065E-011,   102.88, 1.12498E-010,   112.83, 1.77032E-010,    99.46,          0,     0.00, 3.5294E-010,   104.32, 4.94819E-011,   126.03, 5.9222E-011,   -10.62, 5.82077E-011,   -90.00,          0,     0.00, 4.1159E-011,   -45.00
Line.L_CEI_MT_171921, 1.66077E-010,   118.81, 8.85158E-011,    99.46, 5.82077E-011,    90.00,          0,     0.00, 3.06023E-010,   108.00, 3.63798E-011,   -36.87, 3.91822E-011,    21.80, 6.50781E-011,    63.43,          0,     0.00, 1.07428E-010,    28.30
Line.L_CEI_MT_171953, 1.62988E-009,   113.13, 1.53122E-009,   114.42, 1.64043E-009,   115.20,          0,     0.00, 4.80099E-009,   114.25, 1.32367E-009,   -67.54, 1.23868E-009,   -65.17, 1.34393E-009,   -63.99,          0,     0.00, 3.90495E-009,   -65.57
Line.L_CEI_MT_171954, 2.38149E-010,   112.45, 2.53356E-010,   111.04, 2.57141E-010,   115.11,          0,     0.00, 7.48312E-010,   112.89, 1.18234E-011,    90.00, 2.48244E-011,    28.44, 4.1159E-011,    45.00,          0,     0.00, 7.33258E-011,    46.01
Line.L_CEI_MT_171955, 1.05655E-009,   113.54, 1.0079E-009,   116.59, 1.07125E-009,   114.48,          0,     0.00, 3.13493E-009,   114.84, 8.11005E-010,   -67.03, 7.70381E-010,   -63.04, 8.07074E-010,   -64.36,          0,     0.00, 2.38746E-009,   -64.84
Line.L_CEI_MT_171958, 7.56219E-010,   110.85, 7.5376E-010,   111.52, 8.17145E-010,   114.74,          0,     0.00, 2.32608E-009,   112.43, 5.2373E-010,   -69.68, 5.12749E-010,   -68.35, 5.76089E-010,   -62.14,          0,     0.00, 1.60983E-009,   -66.56
Line.L_CEI_MT_171959, 5.81725E-010,   117.57, 5.23054E-010,   112.06, 5.12891E-010,   121.66,          0,     0.00, 1.614E-009,   117.08, 3.36145E-010,   -61.56, 2.65699E-010,   -69.15, 2.82547E-010,   -55.49,          0,     0.00, 8.80498E-010,   -61.90
Line.L_CEI_MT_171960, 3.13633E-010,   111.43, 2.89042E-010,   114.15, 2.76582E-010,   116.57,          0,     0.00, 8.78665E-010,   113.94, 1.95911E-011,   -68.20, 4.72237E-011,  -164.36, 1.45519E-011,     0.00,          0,     0.00, 3.89281E-011,  -127.41
Line.L_CEI_MT_171961, 6.83514E-011,   115.20, 9.27506E-011,   101.31, 1.37282E-010,   122.01,          0,     0.00, 2.94766E-010,   114.03, 1.96754E-011,   123.69, 5.46908E-011,    93.81,          0,     0.00,          0,     0.00, 7.24177E-011,   101.59
Line.L_CEI_MT_171965,    314.583,   -26.34,    314.586,  -146.34,    314.586,    93.66,          0,     0.00, 0.00485976,   140.83,    314.583,   153.66,    314.586,    33.66,    314.586,   -86.34,          0,     0.00, 0.00485976,   -39.17
Line.L_CEI_MT_171966,    314.583,   153.66,    314.586,    33.66,    314.586,   -86.34,          0,     0.00, 0.00485976,   -39.17,    314.583,   -26.34,    314.586,  -146.34,    314.586,    93.66,          0,     0.00, 0.00485976,   140.83
Line.L_CEI_MT_171967,    314.583,   153.66,    314.586,    33.66,    314.586,   -86.34,          0,     0.00, 0.00485976,   -39.17,    314.583,   -26.34,    314.586,  -146.34,    314.586,    93.66,          0,     0.00, 0.00485976,   140.83
Line.L_CEI_MT_171969, 2.32944E-011,   141.34, 9.09495E-013,   -90.00, 2.91038E-011,    90.00,          0,     0.00, 4.64555E-011,   113.05, 4.02368E-010,   108.72, 3.99785E-010,   108.85, 3.8727E-010,   115.60,          0,     0.00, 1.18757E-009,   111.00
Line.L_CEI_MT_171976, 5.44862E-010,   -67.63, 5.90317E-010,   -75.36, 5.29698E-010,   -69.08,          0,     0.00, 1.66193E-009,   -70.83, 8.82923E-010,   113.69, 9.4337E-010,   108.09, 8.72903E-010,   111.00,          0,     0.00, 2.69701E-009,   110.86
Line.L_CEI_MT_171977, 5.79519E-010,   110.97, 5.63455E-010,   106.50, 5.56979E-010,   109.86,          0,     0.00, 1.69902E-009,   109.12, 2.64575E-010,   -65.64, 2.78252E-010,   -78.69, 2.43935E-010,   -72.65,          0,     0.00, 7.83244E-010,   -72.43
Line.L_CEI_MT_171978, 1.95911E-011,    68.20, 1.81899E-011,  -126.87, 1.45519E-011,   180.00,          0,     0.00, 1.85501E-011,   168.69, 2.29077E-010,   122.68, 2.70071E-010,   108.86, 2.48663E-010,   110.56,          0,     0.00, 7.43667E-010,   113.65
Line.L_CEI_MT_171981,    2.55414,   153.89,    2.55423,    33.89,    2.55421,   -86.11,          0,     0.00, 3.21397E-005,   -96.02,    2.55414,   -26.11,    2.55423,  -146.11,    2.55421,    93.89,          0,     0.00, 3.21405E-005,    83.98
Line.L_CEI_MT_171986, 2.7706E-011,    23.20, 1.81899E-011,   -90.00, 3.58299E-011,    23.96,          0,     0.00, 5.86606E-011,     7.13, 3.02565E-010,   108.22, 2.87676E-010,   103.16, 2.74974E-010,   115.89,          0,     0.00, 8.6171E-010,   108.97
Line.L_CEI_MT_171987,    2.55414,   153.89,    2.55423,    33.89,    2.55421,   -86.11,          0,     0.00, 3.2138E-005,   -96.03,    2.55414,   -26.11,    2.55423,  -146.11,    2.55421,    93.89,          0,     0.00, 3.21388E-005,    83.98
Line.L_CEI_MT_171988,    2.55414,   -26.11,    2.55423,  -146.11,    2.55421,    93.89,          0,     0.00, 3.21379E-005,    83.97,    2.55414,   153.89,    2.55423,    33.89,    2.55421,   -86.11,          0,     0.00, 3.21371E-005,   -96.03
Line.L_CEI_MT_171992,    2.55414,   153.89,    2.55423,    33.89,    2.55421,   -86.11,          0,     0.00, 3.21363E-005,   -96.03,    2.55414,   -26.11,    2.55423,  -146.11,    2.55421,    93.89,          0,     0.00, 3.21372E-005,    83.97
Line.L_CEI_MT_171994, 6.17902E-010,   105.71, 6.35637E-010,   105.95, 6.2999E-010,   104.04,          0,     0.00, 1.88332E-009,   105.23, 2.9118E-010,   -75.53, 3.10131E-010,   -72.95, 2.99134E-010,   -76.64,          0,     0.00, 9.00111E-010,   -75.01
Line.L_CEI_MT_171995, 2.70412E-011,   160.35, 2.6044E-011,   167.91, 1.81899E-011,   126.87,          0,     0.00, 6.83514E-011,   154.80, 2.68232E-010,   104.13, 2.96585E-010,   105.66, 2.84135E-010,   103.32,          0,     0.00, 8.48827E-010,   104.39
Line.L_CEI_MT_172004, 4.90332E-010,   101.12, 5.04087E-010,   105.92, 4.83728E-010,   105.71,          0,     0.00, 1.47705E-009,   104.26, 2.41932E-010,   -80.04, 2.42521E-010,   -80.50, 2.21648E-010,   -66.80,          0,     0.00, 7.01902E-010,   -76.05
Line.L_CEI_MT_172005, 1.67703E-011,   130.60, 1.46652E-011,   -60.26, 3.25391E-011,   -63.43,          0,     0.00, 3.10829E-011,   -69.44, 2.62945E-010,   103.60, 2.52309E-010,    95.79, 2.27774E-010,   116.57,          0,     0.00, 7.35075E-010,   104.91
Line.L_CEI_MT_13478A,   0.920811,   -26.17,    0.92082,  -146.17,   0.920887,    93.83,          0,     0.00, 9.81743E-005,    31.66,   0.920811,   153.83,    0.92082,    33.83,   0.920887,   -86.17,          0,     0.00, 9.81743E-005,  -148.34
Line.L_CEI_MT_12338A,    6.78979,   153.23,    6.78979,    33.23,    6.78979,   -86.77,          0,     0.00, 3.1377E-005,    -1.02,    6.78979,   -26.77,    6.78979,  -146.77,    6.78979,    93.23,          0,     0.00, 3.13772E-005,   178.98
Line.L_CEI_MT_14799,   0.454922,   -26.55,   0.454921,  -146.55,   0.454921,    93.45,          0,     0.00, 1.17003E-006,     1.92,   0.454922,   153.45,   0.454921,    33.45,   0.454921,   -86.55,          0,     0.00, 1.17028E-006,  -178.10
Line.L_CEI_MT_14800,    1.47845,   -26.55,    1.47844,  -146.55,    1.47844,    93.45,          0,     0.00, 3.80133E-006,     1.95,    1.47845,   153.45,    1.47844,    33.45,    1.47844,   -86.55,          0,     0.00, 3.80213E-006,  -178.07
Line.L_CEI_MT_14801,    1.47845,   153.45,    1.47844,    33.45,    1.47844,   -86.55,          0,     0.00, 3.80239E-006,  -178.08,    1.47845,   -26.55,    1.47844,  -146.55,    1.47844,    93.45,          0,     0.00, 3.80239E-006,     1.93
Line.L_CEI_MT_14802,    1.02353,   -26.55,    1.02353,  -146.55,    1.02353,    93.45,          0,     0.00, 2.63221E-006,     1.94,    1.02353,   153.45,    1.02353,    33.45,    1.02353,   -86.55,          0,     0.00, 2.63238E-006,  -178.07
Line.L_CEI_MT_14803,    1.02353,   -26.55,    1.02353,  -146.55,    1.02353,    93.45,          0,     0.00, 2.63231E-006,     1.93,    1.02353,   153.45,    1.02353,    33.45,    1.02353,   -86.55,          0,     0.00, 2.63262E-006,  -178.08
Line.L_CEI_MT_14804,    1.02353,   -26.55,    1.02353,  -146.55,    1.02353,    93.45,          0,     0.00, 2.63259E-006,     1.92,    1.02353,   153.45,    1.02353,    33.45,    1.02353,   -86.55,          0,     0.00, 2.63283E-006,  -178.09
Line.L_CEI_MT_14805,    1.02353,   -26.55,    1.02353,  -146.55,    1.02353,    93.45,          0,     0.00, 2.63287E-006,     1.90,    1.02353,   153.45,    1.02353,    33.45,    1.02353,   -86.55,          0,     0.00, 2.63309E-006,  -178.11
Line.L_CEI_MT_14806,   0.227531,   -26.54,    0.22753,  -146.54,   0.227531,    93.45,          0,     0.00, 5.79713E-007,     2.50,   0.227531,   153.46,    0.22753,    33.46,   0.227531,   -86.55,          0,     0.00, 5.80377E-007,  -177.65
Line.L_CEI_MT_14807,   0.227531,   153.46,    0.22753,    33.46,   0.227531,   -86.55,          0,     0.00, 5.80739E-007,  -177.72,   0.227531,   -26.54,    0.22753,  -146.54,   0.227531,    93.45,          0,     0.00, 5.80401E-007,     2.35
Line.L_CEI_MT_14808,   0.227531,   -26.54,    0.22753,  -146.54,   0.227531,    93.45,          0,     0.00, 5.80777E-007,     2.26,   0.227531,   153.46,    0.22753,    33.46,   0.227531,   -86.55,          0,     0.00, 5.81142E-007,  -177.80
Line.L_CEI_MT_14809,    9.44149,   -26.55,    9.44166,  -146.55,    9.44194,    93.45,          0,     0.00, 0.000743709,   107.50,    9.44149,   153.45,    9.44166,    33.45,    9.44194,   -86.55,          0,     0.00, 0.000743708,   -72.50
Line.L_CEI_MT_14810,   0.341889,   153.50,   0.341888,    33.50,   0.341889,   -86.50,          0,     0.00, 8.3281E-007,  -175.71,   0.341889,   -26.50,   0.341888,  -146.50,   0.341889,    93.50,          0,     0.00, 8.32458E-007,     4.34
Line.L_CEI_MT_14811,    1.02595,   -26.50,    1.02594,  -146.50,    1.02595,    93.50,          0,     0.00, 2.45246E-006,     4.72,    1.02595,   153.50,    1.02594,    33.50,    1.02595,   -86.50,          0,     0.00, 2.45258E-006,  -175.28
Line.L_CEI_MT_14812,    1.02595,   -26.50,    1.02594,  -146.50,    1.02595,    93.50,          0,     0.00, 2.45247E-006,     4.71,    1.02595,   153.50,    1.02594,    33.50,    1.02595,   -86.50,          0,     0.00, 2.4526E-006,  -175.29
Line.L_CEI_MT_14813,    1.02595,   -26.50,    1.02594,  -146.50,    1.02595,    93.50,          0,     0.00, 2.45287E-006,     4.71,    1.02595,   153.50,    1.02594,    33.50,    1.02595,   -86.50,          0,     0.00, 2.45302E-006,  -175.30
Line.L_CEI_MT_14814,    1.02595,   -26.50,    1.02594,  -146.50,    1.02595,    93.50,          0,     0.00, 2.45311E-006,     4.70,    1.02595,   153.50,    1.02594,    33.50,    1.02595,   -86.50,          0,     0.00, 2.45323E-006,  -175.31
Line.L_CEI_MT_14815,    1.02595,   -26.50,    1.02594,  -146.50,    1.02595,    93.50,          0,     0.00, 2.45328E-006,     4.69,    1.02595,   153.50,    1.02594,    33.50,    1.02595,   -86.50,          0,     0.00, 2.45331E-006,  -175.31
Line.L_CEI_MT_14816,    1.02595,   -26.50,    1.02594,  -146.50,    1.02595,    93.50,          0,     0.00, 2.45339E-006,     4.69,    1.02595,   153.50,    1.02594,    33.50,    1.02595,   -86.50,          0,     0.00, 2.45347E-006,  -175.32
Line.L_CEI_MT_14817,    1.02595,   -26.50,    1.02594,  -146.50,    1.02595,    93.50,          0,     0.00, 2.45349E-006,     4.68,    1.02595,   153.50,    1.02594,    33.50,    1.02595,   -86.50,          0,     0.00, 2.45364E-006,  -175.32
Line.L_CEI_MT_14818,    1.02595,   -26.50,    1.02594,  -146.50,    1.02595,    93.50,          0,     0.00, 2.45349E-006,     4.68,    1.02595,   153.50,    1.02594,    33.50,    1.02595,   -86.50,          0,     0.00, 2.45378E-006,  -175.33
Line.L_CEI_MT_14819,    1.02595,   -26.50,    1.02594,  -146.50,    1.02595,    93.50,          0,     0.00, 2.45364E-006,     4.67,    1.02595,   153.50,    1.02594,    33.50,    1.02595,   -86.50,          0,     0.00, 2.45381E-006,  -175.34
Line.L_CEI_MT_14820,    1.02595,   -26.50,    1.02594,  -146.50,    1.02595,    93.50,          0,     0.00, 2.4533E-006,     4.66,    1.02595,   153.50,    1.02594,    33.50,    1.02595,   -86.50,          0,     0.00, 2.4536E-006,  -175.35
Line.L_CEI_MT_14821,    1.02595,   -26.50,    1.02594,  -146.50,    1.02595,    93.50,          0,     0.00, 2.45405E-006,     4.66,    1.02595,   153.50,    1.02594,    33.50,    1.02595,   -86.50,          0,     0.00, 2.45423E-006,  -175.35
Line.L_CEI_MT_14822,    1.02595,   -26.50,    1.02594,  -146.50,    1.02595,    93.50,          0,     0.00, 2.45442E-006,     4.65,    1.02595,   153.50,    1.02594,    33.50,    1.02595,   -86.50,          0,     0.00, 2.45443E-006,  -175.36
Line.L_CEI_MT_14823,    1.02595,   -26.50,    1.02594,  -146.50,    1.02595,    93.50,          0,     0.00, 2.45448E-006,     4.65,    1.02595,   153.50,    1.02594,    33.50,    1.02595,   -86.50,          0,     0.00, 2.45469E-006,  -175.37
Line.L_CEI_MT_14824,    1.02595,   -26.50,    1.02594,  -146.50,    1.02595,    93.50,          0,     0.00, 2.45467E-006,     4.64,    1.02595,   153.50,    1.02594,    33.50,    1.02595,   -86.50,          0,     0.00, 2.45499E-006,  -175.37
Line.L_CEI_MT_14825,    33.6028,   153.50,    33.6033,    33.50,    33.6032,   -86.50,          0,     0.00, 0.000743612,   -41.73,    33.6028,   -26.50,    33.6033,  -146.50,    33.6032,    93.50,          0,     0.00, 0.000743612,   138.27
Line.L_CEI_MT_14826,    33.6028,   153.50,    33.6033,    33.50,    33.6032,   -86.50,          0,     0.00, 0.000743612,   -41.73,    33.6028,   -26.50,    33.6033,  -146.50,    33.6032,    93.50,          0,     0.00, 0.000743612,   138.27
Line.L_CEI_MT_14827,   0.461558,   -26.29,   0.461557,  -146.29,   0.461558,    93.71,          0,     0.00, 9.95666E-007,     5.36,   0.461558,   153.71,   0.461557,    33.71,   0.461558,   -86.29,          0,     0.00, 9.95654E-007,  -174.65
Line.L_CEI_MT_14828,   0.461558,   153.71,   0.461557,    33.71,   0.461558,   -86.29,          0,     0.00, 9.96328E-007,  -174.74,   0.461558,   -26.29,   0.461557,  -146.29,   0.461558,    93.71,          0,     0.00, 9.95677E-007,     5.34
Line.L_CEI_MT_14829,    30.2815,   147.33,    30.2819,    27.33,    30.2817,   -92.67,          0,     0.00, 0.00047264,     2.11,    30.2815,   -32.67,    30.2819,  -152.67,    30.2817,    87.33,          0,     0.00, 0.00047264,  -177.89
Line.L_CEI_MT_14830,   0.342064,   -26.58,   0.342063,  -146.58,   0.342064,    93.42,          0,     0.00, 7.92488E-007,     7.60,   0.342064,   153.42,   0.342063,    33.42,   0.342064,   -86.58,          0,     0.00, 7.92637E-007,  -172.42
Line.L_CEI_MT_14831,    65.2112,   -26.73,     65.212,  -146.73,     65.212,    93.27,          0,     0.00, 0.000778316,  -172.14,    65.2112,   153.27,     65.212,    33.27,     65.212,   -86.73,          0,     0.00, 0.000778316,     7.86
Line.L_CEI_MT_14832,    64.8692,   -26.73,      64.87,  -146.73,    64.8699,    93.27,          0,     0.00, 0.000779108,  -172.14,    64.8692,   153.27,      64.87,    33.27,    64.8699,   -86.73,          0,     0.00, 0.000779108,     7.86
Line.L_CEI_MT_14833,    65.2112,   -26.73,     65.212,  -146.73,     65.212,    93.27,          0,     0.00, 0.000778317,  -172.14,    65.2112,   153.27,     65.212,    33.27,     65.212,   -86.73,          0,     0.00, 0.000778316,     7.86
Line.L_CEI_MT_14834,    65.2112,   -26.73,     65.212,  -146.73,     65.212,    93.27,          0,     0.00, 0.000778317,  -172.14,    65.2112,   153.27,     65.212,    33.27,     65.212,   -86.73,          0,     0.00, 0.000778317,     7.86
Line.L_CEI_MT_14835,    65.2112,   -26.73,     65.212,  -146.73,     65.212,    93.27,          0,     0.00, 0.000778317,  -172.14,    65.2112,   153.27,     65.212,    33.27,     65.212,   -86.73,          0,     0.00, 0.000778317,     7.86
Line.L_CEI_MT_14836,    65.2112,   -26.73,     65.212,  -146.73,     65.212,    93.27,          0,     0.00, 0.000778318,  -172.14,    65.2112,   153.27,     65.212,    33.27,     65.212,   -86.73,          0,     0.00, 0.000778317,     7.86
Line.L_CEI_MT_14837,    66.9251,   -26.73,    66.9258,  -146.73,    66.9259,    93.27,          0,     0.00, 0.000738924,  -175.81,    66.9251,   153.27,    66.9258,    33.27,    66.9259,   -86.73,          0,     0.00, 0.000738924,     4.19
Line.L_CEI_MT_14838,    1.60033,   153.48,    1.60029,    33.48,    1.60028,   -86.52,          0,     0.00, 2.54991E-005,    69.61,    1.60033,   -26.52,    1.60029,  -146.52,    1.60028,    93.48,          0,     0.00, 2.54986E-005,  -110.39
Line.L_CEI_MT_14839,    1.60033,   153.48,    1.60029,    33.48,    1.60028,   -86.52,          0,     0.00, 2.54993E-005,    69.61,    1.60033,   -26.52,    1.60029,  -146.52,    1.60028,    93.48,          0,     0.00, 2.5499E-005,  -110.39
Line.L_CEI_MT_14840,    1.60028,   153.48,    1.60026,    33.48,    1.60029,   -86.52,          0,     0.00, 6.34841E-005,   -72.80,    1.60028,   -26.52,    1.60026,  -146.52,    1.60029,    93.48,          0,     0.00, 6.34847E-005,   107.20
Line.L_CEI_MT_14841,    1.60028,   153.48,    1.60026,    33.48,    1.60029,   -86.52,          0,     0.00, 6.34836E-005,   -72.80,    1.60028,   -26.52,    1.60026,  -146.52,    1.60029,    93.48,          0,     0.00, 6.3484E-005,   107.20
Line.L_CEI_MT_14842,    1.60028,   153.48,    1.60026,    33.48,    1.60029,   -86.52,          0,     0.00, 6.34828E-005,   -72.80,    1.60028,   -26.52,    1.60026,  -146.52,    1.60029,    93.48,          0,     0.00, 6.34836E-005,   107.20
Line.L_CEI_MT_14843,    1.60028,   153.48,    1.60026,    33.48,    1.60029,   -86.52,          0,     0.00, 6.34824E-005,   -72.80,    1.60028,   -26.52,    1.60026,  -146.52,    1.60029,    93.48,          0,     0.00, 6.34829E-005,   107.20
Line.L_CEI_MT_14844,    1.02877,   -26.52,    1.02874,  -146.52,    1.02878,    93.48,          0,     0.00, 6.3722E-005,   108.36,    1.02877,   153.48,    1.02874,    33.48,    1.02878,   -86.52,          0,     0.00, 6.37215E-005,   -71.64
Line.L_CEI_MT_14845,    1.02877,   153.48,    1.02874,    33.48,    1.02878,   -86.52,          0,     0.00, 6.37213E-005,   -71.64,    1.02877,   -26.52,    1.02874,  -146.52,    1.02878,    93.48,          0,     0.00, 6.37215E-005,   108.36
Line.L_CEI_MT_14846,    1.02873,   -26.52,    1.02872,  -146.52,    1.02873,    93.48,          0,     0.00, 2.35585E-006,     7.15,    1.02873,   153.48,    1.02872,    33.48,    1.02873,   -86.52,          0,     0.00, 2.3561E-006,  -172.86
Line.L_CEI_MT_14847,    1.71386,   153.47,    1.71386,    33.47,    1.71386,   -86.53,          0,     0.00, 3.93147E-006,  -172.78,    1.71386,   -26.53,    1.71386,  -146.53,    1.71386,    93.47,          0,     0.00, 3.93116E-006,     7.23
Line.L_CEI_MT_14848,   0.571516,   153.48,   0.571514,    33.48,   0.571515,   -86.52,          0,     0.00, 1.3083E-006,  -172.81,   0.571516,   -26.52,   0.571514,  -146.52,   0.571515,    93.48,          0,     0.00, 1.308E-006,     7.22
Line.L_CEI_MT_14849,   0.571516,   153.48,   0.571514,    33.48,   0.571515,   -86.52,          0,     0.00, 1.30846E-006,  -172.82,   0.571516,   -26.52,   0.571514,  -146.52,   0.571515,    93.48,          0,     0.00, 1.30828E-006,     7.20
Line.L_CEI_MT_14850,   0.571516,   153.48,   0.571514,    33.48,   0.571515,   -86.52,          0,     0.00, 1.30859E-006,  -172.84,   0.571516,   -26.52,   0.571514,  -146.52,   0.571515,    93.48,          0,     0.00, 1.30838E-006,     7.18
Line.L_CEI_MT_14851,   0.571516,   153.48,   0.571514,    33.48,   0.571515,   -86.52,          0,     0.00, 1.30885E-006,  -172.85,   0.571516,   -26.52,   0.571514,  -146.52,   0.571515,    93.48,          0,     0.00, 1.3087E-006,     7.16
Line.L_CEI_MT_14852, 3.90812E-005,   117.44, 1.46449E-005,     2.97, 4.71324E-005,   172.55,          0,     0.00, 6.51054E-005,   140.33, 3.90809E-005,   -62.56, 1.4645E-005,  -177.03, 4.71323E-005,    -7.45,          0,     0.00, 6.51047E-005,   -39.66
Line.L_CEI_MT_14853, 3.90813E-005,   117.44, 1.46448E-005,     2.97, 4.71325E-005,   172.55,          0,     0.00, 6.51059E-005,   140.33, 3.90811E-005,   -62.56, 1.46448E-005,  -177.03, 4.71324E-005,    -7.45,          0,     0.00, 6.51053E-005,   -39.66
Line.L_CEI_MT_14854, 7.29997E-005,   -59.50, 3.8172E-005,    25.46, 8.16844E-005,     1.62,          0,     0.00, 0.000159408,   -16.09,   7.3E-005,   120.50, 3.8172E-005,  -154.54, 8.16844E-005,  -178.38,          0,     0.00, 0.000159408,   163.91
Line.L_CEI_MT_14855,   0.454085,   153.31,   0.454084,    33.31,   0.454085,   -86.69,          0,     0.00, 1.07521E-006,  -171.75,   0.454085,   -26.69,   0.454084,  -146.69,   0.454085,    93.31,          0,     0.00, 1.07514E-006,     8.26
Line.L_CEI_MT_14856,   0.454085,   -26.69,   0.454084,  -146.69,   0.454085,    93.31,          0,     0.00, 1.07521E-006,     8.25,   0.454085,   153.31,   0.454084,    33.31,   0.454085,   -86.69,          0,     0.00, 1.07545E-006,  -171.76
Line.L_CEI_MT_14857,   0.454085,   -26.69,   0.454084,  -146.69,   0.454085,    93.31,          0,     0.00, 1.07532E-006,     8.27,   0.454085,   153.31,   0.454084,    33.31,   0.454085,   -86.69,          0,     0.00, 1.07543E-006,  -171.75
Line.L_CEI_MT_14858,   0.454085,   -26.69,   0.454084,  -146.69,   0.454085,    93.31,          0,     0.00, 1.07543E-006,     8.25,   0.454085,   153.31,   0.454084,    33.31,   0.454085,   -86.69,          0,     0.00, 1.07563E-006,  -171.77
Line.L_CEI_MT_14859,   0.454085,   -26.69,   0.454084,  -146.69,   0.454085,    93.31,          0,     0.00, 1.07578E-006,     8.24,   0.454085,   153.31,   0.454084,    33.31,   0.454085,   -86.69,          0,     0.00, 1.07589E-006,  -171.78
Line.L_CEI_MT_14860,    1.70266,   -26.69,    1.70265,  -146.69,    1.70265,    93.31,          0,     0.00, 4.03393E-006,     8.19,    1.70266,   153.31,    1.70265,    33.31,    1.70265,   -86.69,          0,     0.00, 4.03376E-006,  -171.81
Line.L_CEI_MT_14861,   0.454039,   -26.69,   0.454038,  -146.69,   0.454038,    93.31,          0,     0.00, 1.07476E-006,     8.25,   0.454039,   153.31,   0.454038,    33.31,   0.454038,   -86.69,          0,     0.00, 1.0753E-006,  -171.75
Line.L_CEI_MT_14862,   0.454039,   153.31,   0.454038,    33.31,   0.454038,   -86.69,          0,     0.00, 1.07516E-006,  -171.77,   0.454039,   -26.69,   0.454038,  -146.69,   0.454038,    93.31,          0,     0.00, 1.0752E-006,     8.24
Line.L_CEI_MT_14863,   0.454039,   153.31,   0.454038,    33.31,   0.454038,   -86.69,          0,     0.00, 1.07548E-006,  -171.79,   0.454039,   -26.69,   0.454038,  -146.69,   0.454038,    93.31,          0,     0.00, 1.0754E-006,     8.22
Line.L_CEI_MT_14864,   0.454039,   -26.69,   0.454038,  -146.69,   0.454038,    93.31,          0,     0.00, 1.07531E-006,     8.21,   0.454039,   153.31,   0.454038,    33.31,   0.454038,   -86.69,          0,     0.00, 1.07549E-006,  -171.80
Line.L_CEI_MT_14865,    16.9778,   153.24,    16.9777,    33.24,    16.9778,   -86.76,          0,     0.00, 2.12412E-005,     6.16,    16.9778,   -26.76,    16.9777,  -146.76,    16.9778,    93.24,          0,     0.00, 2.12414E-005,  -173.84
Line.L_CEI_MT_14866,    16.9778,   -26.76,    16.9777,  -146.76,    16.9778,    93.24,          0,     0.00, 2.12416E-005,  -173.84,    16.9778,   153.24,    16.9777,    33.24,    16.9778,   -86.76,          0,     0.00, 2.12416E-005,     6.16
Line.L_CEI_MT_14867,    12.7778,   -27.86,    12.7778,  -147.86,    12.7778,    92.14,          0,     0.00, 2.437E-005,    -0.57,    12.7778,   152.14,    12.7778,    32.14,    12.7778,   -87.86,          0,     0.00, 2.43703E-005,   179.43
Line.L_CEI_MT_14868,    16.9778,   153.24,    16.9778,    33.24,    16.9779,   -86.76,          0,     0.00, 0.00020566,   -75.68,    16.9778,   -26.76,    16.9778,  -146.76,    16.9779,    93.24,          0,     0.00, 0.000205661,   104.32
Line.L_CEI_MT_14870,   0.226522,   153.25,   0.226522,    33.25,   0.226522,   -86.75,          0,     0.00, 5.4051E-007,  -171.23,   0.226522,   -26.75,   0.226522,  -146.75,   0.226522,    93.25,          0,     0.00, 5.39721E-007,     8.95
Line.L_CEI_MT_14871,   0.343669,   -26.19,   0.343668,  -146.19,   0.343668,    93.81,          0,     0.00, 8.65199E-007,    -2.02,   0.343669,   153.81,   0.343668,    33.81,   0.343668,   -86.19,          0,     0.00, 8.65108E-007,   177.96
Line.L_CEI_MT_14872,   0.346597,   -26.16,   0.346596,  -146.16,   0.346597,    93.84,          0,     0.00, 7.16707E-007,    -8.31,   0.346597,   153.84,   0.346596,    33.84,   0.346597,   -86.16,          0,     0.00, 7.1693E-007,   171.63
Line.L_CEI_MT_14873,   0.346597,   -26.16,   0.346596,  -146.16,   0.346597,    93.84,          0,     0.00, 7.16962E-007,    -8.37,   0.346597,   153.84,   0.346596,    33.84,   0.346597,   -86.16,          0,     0.00, 7.173E-007,   171.57
Line.L_CEI_MT_14874,    1.73309,   -26.16,    1.73303,  -146.16,    1.73306,    93.84,          0,     0.00, 5.38453E-005,   -63.85,    1.73309,   153.84,    1.73303,    33.84,    1.73306,   -86.16,          0,     0.00, 5.38457E-005,   116.15
Line.L_CEI_MT_14875,    1.73309,   -26.16,    1.73303,  -146.16,    1.73306,    93.84,          0,     0.00, 5.38457E-005,   -63.85,    1.73309,   153.84,    1.73303,    33.84,    1.73306,   -86.16,          0,     0.00, 5.38463E-005,   116.15
Line.L_CEI_MT_14876,    1.73309,   -26.16,    1.73303,  -146.16,    1.73306,    93.84,          0,     0.00, 5.38463E-005,   -63.85,    1.73309,   153.84,    1.73303,    33.84,    1.73306,   -86.16,          0,     0.00, 5.3847E-005,   116.15
Line.L_CEI_MT_14877,    1.73309,   153.84,    1.73303,    33.84,    1.73306,   -86.16,          0,     0.00, 5.38478E-005,   116.15,    1.73309,   -26.16,    1.73303,  -146.16,    1.73306,    93.84,          0,     0.00, 5.38471E-005,   -63.85
Line.L_CEI_MT_14878,    1.73308,   -26.16,    1.73307,  -146.16,    1.73307,    93.84,          0,     0.00, 3.46602E-006,    -8.85,    1.73308,   153.84,    1.73307,    33.84,    1.73307,   -86.16,          0,     0.00, 3.46585E-006,   171.15
Line.L_CEI_MT_14879,    1.73308,   153.84,    1.73307,    33.84,    1.73307,   -86.16,          0,     0.00, 3.46617E-006,   171.15,    1.73308,   -26.16,    1.73307,  -146.16,    1.73307,    93.84,          0,     0.00, 3.46605E-006,    -8.85
Line.L_CEI_MT_14880,   0.462257,   153.85,   0.462256,    33.85,   0.462256,   -86.15,          0,     0.00, 9.33011E-007,   171.11,   0.462257,   -26.15,   0.462256,  -146.15,   0.462256,    93.85,          0,     0.00, 9.32822E-007,    -8.86
Line.L_CEI_MT_14881, 8.74629E-010,   106.93, 7.25674E-010,   102.15, 8.65319E-010,   109.65,          0,     0.00, 2.4622E-009,   106.48, 8.12052E-010,   -74.41, 6.54998E-010,   -88.73, 6.07706E-010,   -73.30,          0,     0.00, 2.05978E-009,   -78.59
Line.L_CEI_MT_14882, 6.6247E-010,   114.84, 6.91482E-010,   116.06, 7.62415E-010,   113.63,          0,     0.00, 2.11604E-009,   114.80, 4.98387E-010,   -66.10, 4.83267E-010,   -64.35, 5.73279E-010,   -66.04,          0,     0.00, 1.55478E-009,   -65.53
Line.L_CEI_MT_14883, 4.86981E-010,   115.32, 4.79981E-010,   110.29, 5.43315E-010,   110.38,          0,     0.00, 1.50903E-009,   111.94, 6.98892E-011,   -55.07, 1.15116E-010,   -62.73, 1.47147E-010,   -81.47,          0,     0.00, 3.25945E-010,   -69.42
Line.L_CEI_MT_14884, 1.42776E-010,   124.09, 1.46245E-010,    84.29, 1.77032E-010,    99.46,          0,     0.00, 4.48465E-010,   102.18, 4.25815E-011,    70.02, 1.32424E-011,  -105.95, 6.50781E-011,   -63.43,          0,     0.00, 5.05731E-011,   -37.69
Line.L_CEI_MT_14886,   0.251601,   -25.33,   0.251601,  -145.33,   0.251601,    94.67,          0,     0.00, 2.56838E-007,     0.81,   0.251601,   154.67,   0.251601,    34.67,   0.251601,   -85.33,          0,     0.00, 2.56834E-007,  -179.25
Line.L_CEI_MT_14887,   0.251601,   -25.33,   0.251601,  -145.33,   0.251601,    94.67,          0,     0.00, 2.56536E-007,     0.63,   0.251601,   154.67,   0.251601,    34.67,   0.251601,   -85.33,          0,     0.00, 2.56652E-007,  -179.39
Line.L_CEI_MT_14888,   0.251601,   -25.33,   0.251601,  -145.33,   0.251601,    94.67,          0,     0.00, 2.56758E-007,     0.70,   0.251601,   154.67,   0.251601,    34.67,   0.251601,   -85.33,          0,     0.00, 2.56814E-007,  -179.35
Line.L_CEI_MT_14889,    1.75111,   153.94,    1.75111,    33.94,    1.75111,   -86.06,          0,     0.00, 3.40708E-006,   174.10,    1.75111,   -26.06,    1.75111,  -146.06,    1.75111,    93.94,          0,     0.00, 3.40692E-006,    -5.90
Line.L_CEI_MT_14890, 1.62695E-010,  -153.43, 3.13458E-010,   158.20, 1.45519E-010,   126.87,          0,     0.00, 5.47779E-010,   163.01, 2.34643E-010,    29.74, 1.79997E-010,   -14.04, 1.19998E-010,   -75.96,          0,     0.00, 4.09786E-010,    -6.12
Line.L_CEI_MT_14891,    75.7832,   153.86,    75.7836,    33.86,    75.7839,   -86.14,          0,     0.00, 0.00144283,   -94.25,    75.7832,   -26.14,    75.7836,  -146.14,    75.7839,    93.86,          0,     0.00, 0.00144283,    85.75
Line.L_CEI_MT_14892,    77.5343,   -26.14,    77.5347,  -146.14,     77.535,    93.86,          0,     0.00, 0.00144274,    85.61,    77.5343,   153.86,    77.5347,    33.86,     77.535,   -86.14,          0,     0.00, 0.00144274,   -94.39
Line.L_CEI_MT_14893,    1.05767,   -26.01,    1.05767,  -146.01,    1.05767,    93.99,          0,     0.00, 1.97824E-006,    -4.17,    1.05767,   153.99,    1.05767,    33.99,    1.05767,   -86.01,          0,     0.00, 1.9784E-006,   175.82
Line.L_CEI_MT_14894,    1.05767,   -26.01,    1.05767,  -146.01,    1.05767,    93.99,          0,     0.00, 1.97815E-006,    -4.18,    1.05767,   153.99,    1.05767,    33.99,    1.05767,   -86.01,          0,     0.00, 1.97814E-006,   175.81
Line.L_CEI_MT_14895,    1.05767,   -26.01,    1.05767,  -146.01,    1.05767,    93.99,          0,     0.00, 1.97843E-006,    -4.19,    1.05767,   153.99,    1.05767,    33.99,    1.05767,   -86.01,          0,     0.00, 1.97853E-006,   175.80
Line.L_CEI_MT_14896,    1.05767,   -26.01,    1.05767,  -146.01,    1.05767,    93.99,          0,     0.00, 1.97855E-006,    -4.19,    1.05767,   153.99,    1.05767,    33.99,    1.05767,   -86.01,          0,     0.00, 1.97867E-006,   175.80
Line.L_CEI_MT_14897,    1.05767,   -26.01,    1.05767,  -146.01,    1.05767,    93.99,          0,     0.00, 1.97867E-006,    -4.20,    1.05767,   153.99,    1.05767,    33.99,    1.05767,   -86.01,          0,     0.00, 1.97876E-006,   175.79
Line.L_CEI_MT_14898,    1.05767,   -26.01,    1.05767,  -146.01,    1.05767,    93.99,          0,     0.00, 1.97882E-006,    -4.20,    1.05767,   153.99,    1.05767,    33.99,    1.05767,   -86.01,          0,     0.00, 1.97887E-006,   175.79
Line.L_CEI_MT_14899,    1.05767,   -26.01,    1.05767,  -146.01,    1.05767,    93.99,          0,     0.00, 1.97894E-006,    -4.21,    1.05767,   153.99,    1.05767,    33.99,    1.05767,   -86.01,          0,     0.00, 1.97899E-006,   175.78
Line.L_CEI_MT_14900,    1.05767,   -26.01,    1.05767,  -146.01,    1.05767,    93.99,          0,     0.00, 1.979E-006,    -4.22,    1.05767,   153.99,    1.05767,    33.99,    1.05767,   -86.01,          0,     0.00, 1.97921E-006,   175.77
Line.L_CEI_MT_14901,    1.05767,   -26.01,    1.05767,  -146.01,    1.05767,    93.99,          0,     0.00, 1.97926E-006,    -4.23,    1.05767,   153.99,    1.05767,    33.99,    1.05767,   -86.01,          0,     0.00, 1.97939E-006,   175.76
Line.L_CEI_MT_14902,    1.05767,   -26.01,    1.05767,  -146.01,    1.05767,    93.99,          0,     0.00, 1.97926E-006,    -4.24,    1.05767,   153.99,    1.05767,    33.99,    1.05767,   -86.01,          0,     0.00, 1.97936E-006,   175.76
Line.L_CEI_MT_19749A,   0.573001,   -26.45,      0.573,  -146.45,      0.573,    93.55,          0,     0.00, 1.29408E-006,     6.22,   0.573001,   153.55,      0.573,    33.55,      0.573,   -86.45,          0,     0.00, 1.29477E-006,  -173.85
Line.L_CEI_MT_19759A,   0.576781,   -26.15,    0.57678,  -146.15,    0.57678,    93.85,          0,     0.00, 1.31279E-006,    -1.58,   0.576781,   153.85,    0.57678,    33.85,    0.57678,   -86.15,          0,     0.00, 1.31259E-006,   178.42
Line.L_CEI_MT_5182,    1.03721,   153.85,     1.0372,    33.85,     1.0372,   -86.15,          0,     0.00, 2.3775E-006,   177.60,    1.03721,   -26.15,     1.0372,  -146.15,     1.0372,    93.85,          0,     0.00, 2.37715E-006,    -2.39
Line.L_CEI_MT_5183,     14.276,   -26.16,    14.2761,  -146.16,    14.2765,    93.84,          0,     0.00, 0.000806303,    61.90,     14.276,   153.84,    14.2761,    33.84,    14.2765,   -86.16,          0,     0.00, 0.000806303,  -118.10
Line.L_CEI_MT_5187,    33.0022,   153.78,    33.0029,    33.78,    33.0035,   -86.22,          0,     0.00, 0.00175675,   -47.08,    33.0022,   -26.22,    33.0029,  -146.22,    33.0035,    93.78,          0,     0.00, 0.00175675,   132.92
Line.L_CEI_MT_5188,    33.0022,   153.78,    33.0029,    33.78,    33.0035,   -86.22,          0,     0.00, 0.00175675,   -47.08,    33.0022,   -26.22,    33.0029,  -146.22,    33.0035,    93.78,          0,     0.00, 0.00175675,   132.92
Line.L_CEI_MT_5189,    33.0022,   153.78,    33.0029,    33.78,    33.0035,   -86.22,          0,     0.00, 0.00175675,   -47.08,    33.0022,   -26.22,    33.0029,  -146.22,    33.0035,    93.78,          0,     0.00, 0.00175675,   132.92
Line.L_CEI_MT_519,    62.3054,   -26.74,    62.3063,  -146.74,    62.3062,    93.26,          0,     0.00, 0.000785069,  -172.14,    62.3054,   153.26,    62.3063,    33.26,    62.3062,   -86.74,          0,     0.00, 0.000785069,     7.86
Line.L_CEI_MT_5190,    33.0022,   153.78,    33.0029,    33.78,    33.0035,   -86.22,          0,     0.00, 0.00175675,   -47.08,    33.0022,   -26.22,    33.0029,  -146.22,    33.0035,    93.78,          0,     0.00, 0.00175675,   132.92
Line.L_CEI_MT_5191,    33.0022,   153.78,    33.0029,    33.78,    33.0035,   -86.22,          0,     0.00, 0.00175675,   -47.08,    33.0022,   -26.22,    33.0029,  -146.22,    33.0035,    93.78,          0,     0.00, 0.00175675,   132.92
Line.L_CEI_MT_5192,    33.0022,   153.78,    33.0029,    33.78,    33.0035,   -86.22,          0,     0.00, 0.00175675,   -47.08,    33.0022,   -26.22,    33.0029,  -146.22,    33.0035,    93.78,          0,     0.00, 0.00175675,   132.92
Line.L_CEI_MT_5193,    33.0022,   153.78,    33.0029,    33.78,    33.0035,   -86.22,          0,     0.00, 0.00175675,   -47.08,    33.0022,   -26.22,    33.0029,  -146.22,    33.0035,    93.78,          0,     0.00, 0.00175675,   132.92
Line.L_CEI_MT_5194,    33.0022,   153.78,    33.0029,    33.78,    33.0035,   -86.22,          0,     0.00, 0.00175675,   -47.08,    33.0022,   -26.22,    33.0029,  -146.22,    33.0035,    93.78,          0,     0.00, 0.00175675,   132.92
Line.L_CEI_MT_5195,    0.34516,   153.86,   0.345115,    33.85,   0.345246,   -86.16,          0,     0.00, 0.000207387,  -116.51,    0.34516,   -26.14,   0.345115,  -146.15,   0.345246,    93.84,          0,     0.00, 0.000207388,    63.49
Line.L_CEI_MT_5196,    0.34516,   153.86,   0.345115,    33.85,   0.345246,   -86.16,          0,     0.00, 0.000207387,  -116.51,    0.34516,   -26.14,   0.345115,  -146.15,   0.345246,    93.84,          0,     0.00, 0.000207387,    63.49
Line.L_CEI_MT_5197,    0.34516,   153.86,   0.345115,    33.85,   0.345246,   -86.16,          0,     0.00, 0.000207386,  -116.51,    0.34516,   -26.14,   0.345115,  -146.15,   0.345246,    93.84,          0,     0.00, 0.000207387,    63.49
Line.L_CEI_MT_5198,    0.34516,   153.86,   0.345115,    33.85,   0.345246,   -86.16,          0,     0.00, 0.000207386,  -116.51,    0.34516,   -26.14,   0.345115,  -146.15,   0.345246,    93.84,          0,     0.00, 0.000207387,    63.49
Line.L_CEI_MT_5199,    0.34516,   153.86,   0.345115,    33.85,   0.345246,   -86.16,          0,     0.00, 0.000207386,  -116.51,    0.34516,   -26.14,   0.345115,  -146.15,   0.345246,    93.84,          0,     0.00, 0.000207386,    63.49
Line.L_CEI_MT_520,    62.3054,   -26.74,    62.3063,  -146.74,    62.3062,    93.26,          0,     0.00, 0.000785069,  -172.14,    62.3054,   153.26,    62.3063,    33.26,    62.3062,   -86.74,          0,     0.00, 0.000785069,     7.86
Line.L_CEI_MT_5200,    0.34516,   153.86,   0.345115,    33.85,   0.345246,   -86.16,          0,     0.00, 0.000207386,  -116.51,    0.34516,   -26.14,   0.345115,  -146.15,   0.345246,    93.84,          0,     0.00, 0.000207386,    63.49
Line.L_CEI_MT_5201,    0.34516,   -26.14,   0.345115,  -146.15,   0.345246,    93.84,          0,     0.00, 0.000207386,    63.49,    0.34516,   153.86,   0.345115,    33.85,   0.345246,   -86.16,          0,     0.00, 0.000207385,  -116.51
Line.L_CEI_MT_5202,    0.34516,   153.86,   0.345115,    33.85,   0.345246,   -86.16,          0,     0.00, 0.000207385,  -116.51,    0.34516,   -26.14,   0.345115,  -146.15,   0.345246,    93.84,          0,     0.00, 0.000207385,    63.49
Line.L_CEI_MT_5203,    0.34516,   153.86,   0.345115,    33.85,   0.345246,   -86.16,          0,     0.00, 0.000207385,  -116.51,    0.34516,   -26.14,   0.345115,  -146.15,   0.345246,    93.84,          0,     0.00, 0.000207385,    63.49
Line.L_CEI_MT_5204,    0.34516,   153.86,   0.345115,    33.85,   0.345246,   -86.16,          0,     0.00, 0.000207385,  -116.51,    0.34516,   -26.14,   0.345115,  -146.15,   0.345246,    93.84,          0,     0.00, 0.000207385,    63.49
Line.L_CEI_MT_5205,   0.345226,   153.86,   0.345185,    33.85,   0.345207,   -86.16,          0,     0.00, 0.000118769,  -153.96,   0.345226,   -26.14,   0.345185,  -146.15,   0.345207,    93.84,          0,     0.00, 0.000118769,    26.04
Line.L_CEI_MT_5206,   0.345226,   153.86,   0.345185,    33.85,   0.345207,   -86.16,          0,     0.00, 0.000118769,  -153.96,   0.345226,   -26.14,   0.345185,  -146.15,   0.345207,    93.84,          0,     0.00, 0.000118769,    26.04
Line.L_CEI_MT_5207,   0.345226,   153.86,   0.345185,    33.85,   0.345207,   -86.16,          0,     0.00, 0.000118768,  -153.96,   0.345226,   -26.14,   0.345185,  -146.15,   0.345207,    93.84,          0,     0.00, 0.000118768,    26.04
Line.L_CEI_MT_5208,   0.345226,   153.86,   0.345185,    33.85,   0.345207,   -86.16,          0,     0.00, 0.000118768,  -153.96,   0.345226,   -26.14,   0.345185,  -146.15,   0.345207,    93.84,          0,     0.00, 0.000118768,    26.04
Line.L_CEI_MT_5209,   0.345226,   153.86,   0.345185,    33.85,   0.345207,   -86.16,          0,     0.00, 0.000118768,  -153.96,   0.345226,   -26.14,   0.345185,  -146.15,   0.345207,    93.84,          0,     0.00, 0.000118768,    26.04
Line.L_CEI_MT_521,    62.3054,   -26.74,    62.3063,  -146.74,    62.3062,    93.26,          0,     0.00, 0.000785069,  -172.14,    62.3054,   153.26,    62.3063,    33.26,    62.3062,   -86.74,          0,     0.00, 0.000785069,     7.86
Line.L_CEI_MT_5210,   0.345186,   -26.15,   0.345185,  -146.15,   0.345186,    93.85,          0,     0.00, 8.07385E-007,    -2.41,   0.345186,   153.85,   0.345185,    33.85,   0.345186,   -86.15,          0,     0.00, 8.07823E-007,   177.64
Line.L_CEI_MT_5211,     32.657,   -26.22,    32.6577,  -146.22,    32.6582,    93.78,          0,     0.00, 0.00162301,   141.12,     32.657,   153.78,    32.6577,    33.78,    32.6582,   -86.22,          0,     0.00, 0.00162301,   -38.88
...
Line.SW_FT3432, 3.8147E-005,   126.87, 6.29136E-005,  -104.04, 7.62939E-005,    53.13,          0,     0.00, 3.14568E-005,    75.96, 3.8147E-005,   -53.13, 6.29136E-005,    75.96, 7.62939E-005,  -126.87,          0,     0.00, 3.14568E-005,  -104.04
Line.SW_FX2587,     0.9241,   153.84,    0.92414,    33.84,   0.924135,   -86.16,          0,     0.00, 7.62939E-005,    53.13,     0.9241,   -26.16,    0.92414,  -146.16,   0.924135,    93.84,          0,     0.00, 7.62939E-005,  -126.87
Line.SW_FIC2004, 1.52588E-005,   180.00, 8.39233E-005,   180.00, 4.57764E-005,   180.00,          0,     0.00, 0.000144958,   180.00, 1.52588E-005,     0.00, 8.39233E-005,     0.00, 4.57764E-005,     0.00,          0,     0.00, 0.000144958,     0.00
Line.SW_FZ1012_DP_12240, 2.28882E-005,     0.00, 0.000114441,   180.00, 6.29136E-005,    75.96,          0,     0.00, 9.77039E-005,   141.34, 2.28882E-005,   180.00, 0.000114441,     0.00, 6.29136E-005,  -104.04,          0,     0.00, 9.77039E-005,   -38.66
Line.SW_FU0743, 9.18701E-005,    94.76, 0.000124198,   -47.49, 6.29136E-005,  -104.04,          0,     0.00, 8.63167E-005,   -45.00, 9.18701E-005,   -85.24, 0.000124198,   132.51, 6.29136E-005,    75.96,          0,     0.00, 8.63167E-005,   135.00
Line.SW_2175_SCN, 6.82394E-005,   153.43, 0.000127892,  -107.35, 9.77039E-005,   -38.66,          0,     0.00, 0.000154295,   -98.53, 6.82394E-005,   -26.57, 0.000127892,    72.65, 9.77039E-005,   141.34,          0,     0.00, 0.000154295,    81.47
Line.SW_FP1476F,    8.76321,   153.22,    8.76328,    33.22,    8.76336,   -86.78,          0,     0.00, 8.63167E-005,  -135.00,    8.76321,   -26.78,    8.76328,  -146.78,    8.76336,    93.22,          0,     0.00, 8.63167E-005,    45.00
Line.SW_FIC2008,    8.75833,   153.45,    8.75835,    33.45,    8.75874,   -86.55,          0,     0.00, 0.00067208,   -87.40,    8.75833,   -26.55,    8.75835,  -146.55,    8.75874,    93.45,          0,     0.00, 0.00067208,    92.60
Line.SW_FX2678, 6.15101E-005,    97.13, 6.15101E-005,   -82.87, 1.52588E-005,     0.00,          0,     0.00, 1.52588E-005,     0.00, 6.15101E-005,   -82.87, 6.15101E-005,    97.13, 1.52588E-005,   180.00,          0,     0.00, 1.52588E-005,   180.00
Line.SW_FW6568,   0.909877,   153.44,   0.910212,    33.44,   0.909978,   -86.55,          0,     0.00, 0.000532967,    13.24,   0.909877,   -26.56,   0.910212,  -146.56,   0.909978,    93.45,          0,     0.00, 0.000532967,  -166.76
Line.SW_FT6092, 3.8147E-005,   180.00, 5.34058E-005,   180.00, 1.52588E-005,     0.00,          0,     0.00, 7.62939E-005,   180.00, 3.8147E-005,     0.00, 5.34058E-005,     0.00, 1.52588E-005,   180.00,          0,     0.00, 7.62939E-005,     0.00
Line.SW_FP8207, 0.000152779,    92.86, 0.000177947,   -59.04, 6.10352E-005,   180.00,          0,     0.00, 2.28882E-005,     0.00, 0.000152779,   -87.14, 0.000177947,   120.96, 6.10352E-005,     0.00,          0,     0.00, 2.28882E-005,   180.00
Line.SW_FP0928, 0.000110033,   146.31, 9.91821E-005,  -112.62, 3.05176E-005,     0.00,          0,     0.00, 0.000103771,  -162.90, 0.000110033,   -33.69, 9.91821E-005,    67.38, 3.05176E-005,   180.00,          0,     0.00, 0.000103771,    17.10
Line.SW_FU4650, 0.000103771,   -36.03, 8.39233E-005,   180.00, 0.000106812,   180.00,          0,     0.00, 0.00012302,  -150.26, 0.000103771,   143.97, 8.39233E-005,     0.00, 0.000106812,     0.00,          0,     0.00, 0.00012302,    29.74
Line.SW_FP3922,    1.15345,   153.85,     1.1535,    33.85,    1.15349,   -86.15,          0,     0.00, 0.00011844,   -14.93,    1.15345,   -26.15,     1.1535,  -146.15,    1.15349,    93.85,          0,     0.00, 0.00011844,   165.07
Line.SW_FU2966, 9.65051E-005,   161.57, 8.63167E-005,   -45.00, 3.05176E-005,   180.00,          0,     0.00, 6.82394E-005,  -153.43, 9.65051E-005,   -18.43, 8.63167E-005,   135.00, 3.05176E-005,     0.00,          0,     0.00, 6.82394E-005,    26.57
Line.SW_FIC6219,    1.50073,   153.85,    1.50066,    33.85,    1.50064,   -86.15,          0,     0.00, 0.000105991,    59.74,    1.50073,   -26.15,    1.50066,  -146.15,    1.50064,    93.85,          0,     0.00, 0.000105991,  -120.26
Line.SW_FX2155,    5.63997,   153.84,    5.63987,    33.84,    5.63991,   -86.16,          0,     0.00, 6.82394E-005,    26.57,    5.63997,   -26.16,    5.63987,  -146.16,    5.63991,    93.84,          0,     0.00, 6.82394E-005,  -153.43
Line.SW_FP1477,    12.4304,   154.10,    12.4304,    34.10,    12.4302,   -85.90,          0,     0.00, 0.000140679,    40.60,    12.4304,   -25.90,    12.4304,  -145.90,    12.4302,    94.10,          0,     0.00, 0.000140679,  -139.40
Line.SW_FIC3836, 0.000105991,   120.26, 6.29136E-005,   -75.96, 6.82394E-005,   116.57,          0,     0.00, 0.000114441,   126.87, 0.000105991,   -59.74, 6.29136E-005,   104.04, 6.82394E-005,   -63.43,          0,     0.00, 0.000114441,   -53.13
Line.SW_FZ0734, 6.86646E-005,   180.00, 7.19756E-005,    57.99, 3.05176E-005,   180.00,          0,     0.00, 8.63167E-005,   135.00, 6.86646E-005,     0.00, 7.19756E-005,  -122.01, 3.05176E-005,     0.00,          0,     0.00, 8.63167E-005,   -45.00
Line.SW_FIC4166,    2.19502,   153.85,    2.19505,    33.84,    2.19501,   -86.15,          0,     0.00, 8.92998E-005,   -19.98,    2.19502,   -26.15,    2.19505,  -146.16,    2.19501,    93.85,          0,     0.00, 8.92998E-005,   160.02
Line.SW_FP7913, 9.77039E-005,    38.66, 6.15101E-005,   -97.13, 7.62939E-005,   126.87,          0,     0.00, 6.51856E-005,    69.44, 9.77039E-005,  -141.34, 6.15101E-005,    82.87, 7.62939E-005,   -53.13,          0,     0.00, 6.51856E-005,  -110.56
Line.SW_FX3717, 4.8852E-005,   141.34, 3.14568E-005,   104.04, 6.29136E-005,   -75.96,          0,     0.00, 3.05176E-005,   180.00, 4.8852E-005,   -38.66, 3.14568E-005,   -75.96, 6.29136E-005,   104.04,          0,     0.00, 3.05176E-005,     0.00
Line.SW_FP4175_DP_21647, 5.34058E-005,     0.00, 8.21711E-005,   158.20, 3.05176E-005,   180.00,          0,     0.00, 6.15101E-005,   150.26, 5.34058E-005,   180.00, 8.21711E-005,   -21.80, 3.05176E-005,     0.00,          0,     0.00, 6.15101E-005,   -29.74
Line.SW_FW7439, 2.28882E-005,     0.00, 6.10352E-005,     0.00, 9.15527E-005,   180.00,          0,     0.00, 7.62939E-006,   180.00, 2.28882E-005,   180.00, 6.10352E-005,   180.00, 9.15527E-005,     0.00,          0,     0.00, 7.62939E-006,     0.00
Line.SW_FW6456,    33.0021,   153.78,     33.003,    33.78,    33.0035,   -86.22,          0,     0.00, 0.00175697,   -41.30,    33.0021,   -26.22,     33.003,  -146.22,    33.0035,    93.78,          0,     0.00, 0.00175697,   138.70
Line.SW_FX4290, 6.10352E-005,   -90.00, 8.39233E-005,   180.00, 1.52588E-005,     0.00,          0,     0.00, 9.18701E-005,  -138.37, 6.10352E-005,    90.00, 8.39233E-005,     0.00, 1.52588E-005,   180.00,          0,     0.00, 9.18701E-005,    41.63
Line.SW_FIC3850, 6.15101E-005,    82.87, 3.8147E-005,   -53.13,          0,     0.00,          0,     0.00, 4.31584E-005,    45.00, 6.15101E-005,   -97.13, 3.8147E-005,   126.87,          0,     0.00,          0,     0.00, 4.31584E-005,  -135.00
Line.SW_FX2297, 3.41197E-005,    63.43, 8.11016E-005,   -48.81, 6.29136E-005,   104.04,          0,     0.00, 6.15101E-005,    29.74, 3.41197E-005,  -116.57, 8.11016E-005,   131.19, 6.29136E-005,   -75.96,          0,     0.00, 6.15101E-005,  -150.26
Line.SW_FU4749, 8.11016E-005,   -48.81, 2.28882E-005,   180.00, 4.57764E-005,   180.00,          0,     0.00, 6.29136E-005,  -104.04, 8.11016E-005,   131.19, 2.28882E-005,     0.00, 4.57764E-005,     0.00,          0,     0.00, 6.29136E-005,    75.96
Line.SW_FF0625, 6.82394E-005,   -63.43, 8.21711E-005,    21.80, 3.05176E-005,   180.00,          0,     0.00, 8.21711E-005,   -21.80, 6.82394E-005,   116.57, 8.21711E-005,  -158.20, 3.05176E-005,     0.00,          0,     0.00, 8.21711E-005,   158.20
Line.SW_FP5989_DP_19738, 3.8147E-005,   180.00, 4.31584E-005,  -135.00, 0.00012207,    90.00,          0,     0.00, 0.000114441,   126.87, 3.8147E-005,     0.00, 4.31584E-005,    45.00, 0.00012207,   -90.00,          0,     0.00, 0.000114441,   -53.13
Line.SW_FP4528,    1.08546,   153.75,    1.08546,    33.75,     1.0854,   -86.25,          0,     0.00, 0.000133242,    66.37,    1.08546,   -26.25,    1.08546,  -146.25,     1.0854,    93.75,          0,     0.00, 0.000133242,  -113.63
Line.SW_FW6078,   0.347947,   153.82,   0.347969,    33.81,   0.347822,   -86.17,          0,     0.00, 0.000124198,    47.49,   0.347947,   -26.18,   0.347969,  -146.19,   0.347822,    93.83,          0,     0.00, 0.000124198,  -132.51
Line.SW_FIC3860,    1.08551,   153.75,    1.08542,    33.75,    1.08552,   -86.25,          0,     0.00, 9.15527E-005,   180.00,    1.08551,   -26.25,    1.08542,  -146.25,    1.08552,    93.75,          0,     0.00, 9.15527E-005,     0.00
Line.SW_FX5275, 6.15101E-005,   -97.13, 0.000160217,   180.00, 3.05176E-005,   180.00,          0,     0.00, 0.000207542,  -162.90, 6.15101E-005,    82.87, 0.000160217,     0.00, 3.05176E-005,     0.00,          0,     0.00, 0.000207542,    17.10
Line.SW_FP0937, 9.18701E-005,  -138.37, 0.000105991,   120.26, 7.62939E-005,   -53.13,          0,     0.00, 8.21711E-005,  -158.20, 9.18701E-005,    41.63, 0.000105991,   -59.74, 7.62939E-005,   126.87,          0,     0.00, 8.21711E-005,    21.80
Line.SW_FU4651, 9.15527E-005,   180.00, 6.29136E-005,    75.96, 6.29136E-005,   104.04,          0,     0.00, 0.000152588,   126.87, 9.15527E-005,     0.00, 6.29136E-005,  -104.04, 6.29136E-005,   -75.96,          0,     0.00, 0.000152588,   -53.13
Line.SW_FIC3996, 7.62939E-006,   180.00, 6.15101E-005,    82.87, 4.57764E-005,     0.00,          0,     0.00, 7.62939E-005,    53.13, 7.62939E-006,     0.00, 6.15101E-005,   -97.13, 4.57764E-005,   180.00,          0,     0.00, 7.62939E-005,  -126.87
Line.SW_FU4551,    61.6097,   153.85,    61.6097,    33.85,      61.61,   -86.15,          0,     0.00, 0.00127482,  -101.04,    61.6097,   -26.15,    61.6097,  -146.15,      61.61,    93.85,          0,     0.00, 0.00127482,    78.96
Line.SW_FX4536,    60.3141,   153.81,    60.3149,    33.81,    60.3162,   -86.19,          0,     0.00, 0.00259427,   -70.23,    60.3141,   -26.19,    60.3149,  -146.19,    60.3162,    93.81,          0,     0.00, 0.00259427,   109.77
...